84
Coordinates from ORCA-job penta
  N   5.35708134805156      2.98720489194447      1.54221111419523
  N   0.98474065701555     -3.30444576129544      2.77644056883176
  N   -4.70068133871057      2.05646559807983      2.46611778269520
  C   4.73123397346985      0.71484571066054      0.73415817668243
  C   5.85671455278725      1.64543049603430      1.25106319866339
  C   7.00694875764032      1.70147492015351      0.22146282227469
  C   7.46274134137701      0.30252734443539     -0.23297489348047
  C   6.25042472551225     -0.53311153025309     -0.69405789375970
  C   6.58572660551711     -1.97825945407795     -1.05428583292350
  C   -0.08477938862454     -1.06913182428655      2.36867759089845
  C   1.00294270903105     -2.09765085795973      1.94921930072892
  C   2.42247019588040     -1.47436024147352      2.00924746431613
  C   2.50982185133499     -0.06617596942981      1.37976506535560
  C   1.36818786277481      0.80747013021628      1.92770035847853
  C   1.24342603824461      2.20415873448260      1.32615726912096
  C   -5.31804890576237     -0.34177275375619      2.14830786082668
  C   -4.36822886886915      0.67242493034406      2.80790816549970
  C   -2.89598509636011      0.36377681579383      2.44506978567811
  C   -2.52420077880689     -1.10895638986788      2.75710163227040
  C   -3.63259208460326     -2.11173375345006      2.31755746606136
  C   -3.60495398787409     -3.47949123840922      3.03559302244053
  C   5.31182581257931      3.53776028209794      2.79179951220422
  C   4.81721846110692      4.97599926857329      2.85653816315664
  O   8.09940277460981      2.42407779188258      0.82123519889689
  O   5.46858938033799     -2.67078767092329     -1.65476481291033
  O   5.29810316260578     -0.57987363288376      0.40878182508677
  O   8.40565779125651      0.51080503600368     -1.31336894593296
  O   3.32231555794210     -2.40486909452644      1.37707081342201
  O   0.19336334971222      2.94581564371780      1.98344981033013
  O   0.12602969419247      0.13771435587412      1.61029896811829
  O   3.79201669395822      0.52583629059582      1.75891166614358
  O   -2.02562192158650      1.24820723086950      3.20295835056517
  O   -2.35325594150642     -4.17791462032570      3.01410901382074
  O   -4.97963387168241     -1.65141530683610      2.61030906490455
  O   -1.35109695191943     -1.56544365266656      2.01350607691495
  O   -5.22813236707450     -0.20313046731608      0.73397851694268
  O   5.64579261871194      2.91775225567605      3.81748794429692
  C   -5.33657982348817      2.92680106028780      3.31666869071002
  C   -5.68820327777892      4.28199154815803      2.72276423093237
  O   -5.59903860610209      2.64048874236822      4.49680014545457
  H   5.10881355624234      3.57897404105410      0.75464683350458
  H   5.77468534870659     -0.04668862836075     -1.56250787764030
  H   6.22789320466851      1.22775185621941      2.19387029623173
  H   6.65636073966181      2.24201296738196     -0.67670082336240
  H   7.96001228644718     -0.20380620307205      0.60763653353376
  H   7.38342657584887     -1.98672237267057     -1.80594818419449
  H   6.94144326729457     -2.51105374117070     -0.15751963364586
  H   9.10716379281655     -0.16123356130162     -1.24369861064535
  H   8.82680971382323      2.41408002520000      0.16854660721334
  H   4.73822889345979     -2.68387624936884     -1.00722704763037
  H   -0.03137803635466     -0.84189613494759      3.44797090686055
  H   1.47380491486493      0.90238262316606      3.02322545412277
  H   0.78159137793740     -2.40187525262902      0.91944705566513
  H   2.17373439096979      2.76425416169416      1.46967443130996
  H   1.04431022269090      2.11973746122317      0.24430798647562
  H   -0.54267676617474      2.31528953040044      2.15499718353778
  H   4.25602669830880      1.12391581785278     -0.17463199900251
  H   2.43848591902941     -0.13402843626254      0.28508564507862
  H   -3.52703208916959     -2.25617204589187      1.23150092579749
  H   -6.35028019080295     -0.19177334254366      2.49007025392831
  H   -4.49890922387568      0.57791746149759      3.89183991353361
  H   -2.74099328470028      0.53642292384474      1.37017404134006
  H   -2.32626725761996     -1.19734855993378      3.83643545383468
  H   -5.99890555059873     -0.64763792502968      0.33311243852968
  H   -3.84318829844848     -3.32188217949987      4.09527620341566
  H   -4.40533113110365     -4.09319714700190      2.59099062214191
  H   -2.50675203714752      2.09256042876220      3.31180138383705
  H   -1.98251134202994     -4.17671946878644      2.10969959578143
  H   2.70584478368829     -1.35745607612101      3.07128709653995
  H   5.59271273888815      5.59417054210778      3.32649583045318
  H   3.92718994559965      5.01589184811589      3.49718068590115
  H   4.57306185409617      5.39352309762860      1.87410274924696
  H   4.17606847198030     -1.93563673880770      1.24904597498311
  H   -6.77680835590022      4.41437080926682      2.77099001512402
  H   -5.35779470841874      4.39692050666685      1.68493721799080
  H   -5.22887881224525      5.06618616692304      3.33651409208218
  H   -4.60704066944175      2.33050924775719      1.49163203766971
  C   0.57854261372443     -4.53296399575808      2.35480667718295
  H   1.39549955679791     -3.23757486761781      3.70334467466637
  O   0.06474237924428     -4.72927210499746      1.23464238219946
  C   0.79654848385468     -5.67179287949983      3.33950379137536
  H   1.55632356656641     -6.34989002167271      2.92746522410842
  H   -0.13646834324802     -6.23740735103139      3.44349700680279
  H   1.12645809516867     -5.33013109129817      4.32662469620961
